##CIF_1.1

data_sm_global
#Used dictionaries
loop_
_audit_conform_dict_name
_audit_conform_dict_version
_audit_conform_dict_location
cif_core.dic 	2.4.2 	.
cif_pd.dic 		1.0.1 	.
cif_sm.dic 		0.1 	'redaktion.landolt-boernstein(at)springer.com'

#About this content and reference
_sm_credits_copyright
;PAULING FILE Multinaries Edition - 2012. SpringerMaterials Release 2014.
http://www.paulingfile.com
Unique LPF ID Number SD1215409
Project Coordinator: Shuichi Iwata
Section-Editors: Karin Cenzual (Crystal Structures), Hiroaki Okamoto (Phase 
Diagrams), Fritz Hulliger (Physical Properties)
(c) Springer & Material Phases Data System (MPDS), Switzerland & National 
Institute for Materials Science (NIMS), Japan 2014.
(Data generated pre-2002: (c) Springer & MPDS & NIMS; 
post-2001: (c) Springer & MPDS)
All Rights Reserved. Version 2014.06.
;

_audit_creation_method
;This data have been compiled from the crystallographic datasheet for 
"Sr2IrO4 Crystal Structure" 
taken from SpringerMaterials (sm_isp_sd_1215409).
;

_publ_section_references
;Rao M.V.R., Sathe V.G., Sornadurai D., Panigrahi B.K., Shripathi T.: <i>Metal to insulator transition in Sr<sub>2</sub>Ru<sub>1&#x2212;x</sub>Ir<sub>x</sub>O<sub>4</sub></i>. Journal of Physics and Chemistry of Solids <b>61</b> (2000) 1989-1999.
;

#Phase classification
_sm_phase_labels				'Sr2IrO4 rt'
_chemical_name_mineral			''
_sm_chemical_compound_class		'oxide'
_sm_phase_prototype				'Sr2 IrO4 '
_sm_pearson_symbol				'tI72'
_symmetry_Int_Tables_number		142
_sm_sample_details
;sample prepared from SrCO<sub>3</sub>, IrO<sub>2</sub>, 
powder (determination of cell and structural parameters)
;
_sm_measurement_details
;automatic diffractometer (determination of cell parameters), 
automatic diffractometer; Rigaku (determination of structural parameters), 
X-rays, Cu K&#x03b1;; &#x03bb; = 0.154 nm (determination of cell and structural parameters)
;
_sm_interpretation_details
;complete structure determined, 
Rietveld refinement, 
<i>R</i><sub>P</sub> = 0.1098; <i>wR</i><sub>P</sub> = 0.1563
;

data_sm_isp_SD1215409-standardized_unitcell
#Cell Parameters
_cell_length_a					5.493
_cell_length_b					5.493
_cell_length_c					25.777
_cell_angle_alpha				90
_cell_angle_beta				90
_cell_angle_gamma				90
_sm_length_ratio_ab				1.000
_sm_length_ratio_bc				0.213
_sm_length_ratio_ca				4.693
_cell_volume 					777.8
_symmetry_space_group_name_H-M	'I41/acd'
_symmetry_Int_Tables_number		142
_cell_formula_units_Z			8
_sm_cell_transformation
;No transformation from published to standardized cell parameters necessary.
;

#Atom Coordinates
loop_
_atom_site_label
_atom_site_type_symbol
_atom_site_Wyckoff_symbol
_sm_site_symmetry
_atom_site_fract_x
_atom_site_fract_y
_atom_site_fract_z
_atom_site_occupancy
_sm_coordination_number
_sm_atomic_environment_type
O1 'O' .16f ...2 0.19372 0.44372 0.125 1 4 'tetrahedron, Ir<sub>2</sub>Sr<sub>2</sub>'
Sr 'Sr' .16d .2.. 0 0.25 0.05072 1 9 'tricapped trigonal prism, O<sub>9</sub>'
O2 'O' .16d .2.. 0 0.25 0.29045 1 2 'collinear, IrSr'
Ir 'Ir' .8a .-4.. 0 0.25 0.375 1 6 'octahedron, O<sub>6</sub>'

_sm_atom_site_transformation
;No transformation from published to standardized cell parameters necessary.
;

data_sm_isp_SD1215409-published_cell
#Cell Parameters
_cell_length_a					5.493
_cell_length_b					5.493
_cell_length_c					25.777
_cell_angle_alpha				90
_cell_angle_beta				90
_cell_angle_gamma				90
_sm_length_ratio_ab				1.000
_sm_length_ratio_bc				0.213
_sm_length_ratio_ca				4.693
_cell_volume 					777.77
_symmetry_space_group_name_H-M	'I41/acd'
_symmetry_Int_Tables_number		142
_cell_formula_units_Z			8

#Atom Coordinates
loop_
_atom_site_label
_atom_site_type_symbol
_atom_site_Wyckoff_symbol
_sm_site_symmetry
_atom_site_fract_x
_atom_site_fract_y
_atom_site_fract_z
_atom_site_occupancy
_sm_coordination_number
_sm_atomic_environment_type
Sr 'Sr' .16d .2.. 0 0.25 0.05072 1 ? '?'
Ir 'Ir' .8a .-4.. 0 0.25 0.375 1 ? '?'
O1 'O' .16f ...2 0.19372 0.44372 0.125 1 ? '?'
O2 'O' .16d .2.. 0 0.25 0.95955 1 ? '?'

data_sm_isp_SD1215409-niggli_reduced_cell
#Cell Parameters
_cell_length_a					5.493
_cell_length_b					5.493
_cell_length_c					13.4611
_cell_angle_alpha				101.773
_cell_angle_beta				101.773
_cell_angle_gamma				90
_sm_length_ratio_ab				1.000
_sm_length_ratio_bc				0.408
_sm_length_ratio_ca				2.451
_cell_volume 					388.89
_symmetry_space_group_name_H-M	''
_symmetry_Int_Tables_number		?
_cell_formula_units_Z			8

#Atom Coordinates
loop_
_atom_site_label
_atom_site_type_symbol
_atom_site_Wyckoff_symbol
_sm_site_symmetry
_atom_site_fract_x
_atom_site_fract_y
_atom_site_fract_z
_atom_site_occupancy
_sm_coordination_number
_sm_atomic_environment_type
? ? ? ? ? ? ? ? ? ?

